Circuit: * C:\Users\aditya gupta\Desktop\analog project\small signal\kth_Cc.asc

Ignoring BSIM parameter XL
Ignoring BSIM parameter XW
Ignoring BSIM parameter XL
Ignoring BSIM parameter XW
Warning: Pd = 0 is less than W.
Warning: Ps = 0 is less than W.
Warning: Pd = 0 is less than W.
Warning: Ps = 0 is less than W.
Warning: Pd = 0 is less than W.
Warning: Ps = 0 is less than W.
Warning: Pd = 0 is less than W.
Warning: Ps = 0 is less than W.
Warning: Pd = 0 is less than W.
Warning: Ps = 0 is less than W.
Direct Newton iteration for .op point succeeded.

Date: Wed Dec 01 14:45:15 2021
Total elapsed time: 0.104 seconds.

tnom = 27
temp = 27
method = modified trap
totiter = 2588
traniter = 2581
tranpoints = 1110
accept = 1082
rejected = 28
matrix size = 15
fillins = 2
solver = Normal
Matrix Compiler1: 980 bytes object code size  0.3/0.1/[0.1]
Matrix Compiler2: 1.23 KB object code size  0.1/0.1/[0.1]

