Circuit: * C:\Users\rohan\OneDrive - International Institute of Information Technology (1)\Sem5\AIC\AIC_proj\AIC_project\rohan\charecterization\char-pmos-1.asc

Ignoring BSIM parameter XL
Ignoring BSIM parameter XW
Ignoring BSIM parameter ACM
Ignoring BSIM parameter HDIF
Ignoring BSIM parameter LDIF
Ignoring BSIM parameter CALCACM
Error on line 1232 : .model p18.6 pmos (  lmin = 1.2e-006 lmax = 1.02e-005 wmin = 5e-007 wmax = 1.2e-006  level = 49 version = 3.24  vth0 =  -0.37987  lvth0 = -1.3906e-008 wvth0 = -5.2161e-009 pvth0 = 1.093e-014  k1 = 0.717859 lk1 = -9.65306e-008 wk1 = 5.43803e-008 pk1 = 1.49341e-014  k2 = -0.0530152 lk2 = 3.67978e-008 wk2 = -2.36462e-008 pk2 = -3.08422e-015  u0 =  69.1066  lu0 = -1.19942e-006 wu0 = 5.54696e-006 pu0 = -9.6206e-012  ua = -1.92408e-010 lua = 4.36787e-016 wua = 1.25569e-016 pua = -4.17043e-022  ub = 1.59949e-018 lub = -3.46298e-026 wub = -1.98436e-025 pub = 1.23369e-031  uc = -5.57476e-011 luc = -2.18907e-017 wuc = -1.83079e-017 puc = 1.57241e-023  vsat = 102591 lvsat = 9.01818e-005 wvsat = 1.09091e-005 pvsat = -1.08218e-010  a0 = 1.33147 la0 = 6.76364e-008 wa0 = -1.30925e-007 pa0 = 1.76396e-013  ags = 0.342665 lags = 1.09463e-007 wags = -1.20218e-008 pags = 1.21204e-014  keta = 0.0298048 lketa = -5.30341e-008 wketa = -3.94465e-009 pketa = 2.153e-014  voff = -0.0877352 lvoff = -6.75606e-008 wvoff = -7.43969e-009 pvoff = 3.43485e-014  nfactor =  1.22315  lnfactor = 2.40136e-007 wnfactor = -8.81377e-008 pnfactor = -2.27258e-014  pclm = 6.38245 lpclm = -5.13171e-006 wpclm = -5.54244e-007 ppclm = 7.70513e-013  pdiblcb = -5 lpdiblcb = 0 wpdiblcb = 0 ppdiblcb = 0  pscbe1 = 1e+009 lpscbe1 = 1.48231e-029 wpscbe1 = -3.96323e-014 ppscbe1 = -6.82439e-036  pvag = 2.69357e-006 lpvag = -1.76295e-012 wpvag = 2.15751e-014 ppvag = -4.86116e-019  ute = -0.59557 lute = -1.02897e-007 wute = 5.53714e-008 pute = 1.24992e-013  ua1 = 3.39664e-009 lua1 = -2.886e-015 wua1 = -1.95039e-016 pua1 = 1.80724e-021  ub1 = -5.40235e-018 lub1 = 4.58088e-024 wub1 = 6.40504e-025 pub1 = -2.68056e-030  uc1 = 6.33352e-011 luc1 = -5.84739e-018 wuc1 = -1.47954e-016 puc1 = 8.76026e-023  at = 50000 lat = -6.56159e-018 wat = -3.21271e-018 pat = 4.12216e-024  kt1 = -0.32011 lkt1 = 1.76107e-007 wkt1 = 6.51086e-008 pkt1 = -1.1785e-013  kt2 = -0.104224 lkt2 = 1.09611e-007 wkt2 = 6.80093e-008 pkt2 = -7.09489e-014  pdiblc2 = 4e-005 lpdiblc2 = 0 wpdiblc2 = 0 ppdiblc2 = 0  dwg = 0 dwb = 0  binunit = 2 mobmod = 1 capmod = 3 noimod = 2  paramchk = 1 delta = 0.01 tnom = 27 tox =  4e-009   toxm = 4e-009 nch = 8.11518e+017 xj = 1.5e-007 ngate = 0  rsh = 0 k3 = -5.059 k3b = 3.962 w0 = 2.705e-007  nlx =  8.26e-008  dvt0 =  0.9523  dvt1 = 0.2578 dvt2 = 0.099  dvt0w = -2.973 dvt1w = 5.3e+006 dvt2w = -0.032 eta0 = 0.003519  etab = -0.004696 dsub = 0.2 b0 = 0 b1 = 0  a1 = 1e-015 a2 = 0.995 rdsw = 1505 prwb = -0.009067  prwg = -0.2868 wr = 1 wint =  -4e-008  wl = 0  wln = 1 ww = 0 wwn = 1 wwl = 0  lint =  5e-008  ll = 0 lln = 0.21 lw = 0  lwn = 1 lwl = 0 cit = 0 cdsc = 0.00024  cdscb = 0 cdscd = 0 pdiblc1 = 0.1029 drout = 0.56  pscbe2 = 1e-005 alpha0 = 0 alpha1 = 0  beta0 = 30 js = 1.775e-006 jsw = 1e-018 nj = 1.127  ijth = 0.001416 cj =  0.0009621  mj = 0.3626 pb = 0.775  cjsw =  2.8e-011  mjsw = 0.05 pbsw = 1 cjswg = 5e-010  mjswg = 0.33 pbswg = 1 cgdo =  2.6e-010  cgso =  2.6e-010   cgbo = 0 cgsl = 0 cgdl = 0 ckappa = 0.6  cf = 0 noff = 3 voffcv = -0.08 acde = 0.9  moin = 15 dlc =  -1.36e-007  dwc = 0 llc = 5.77n  lwc = 0 lwlc = 0 wlc = 0 wwc = 0  wwlc = 0 clc = 1e-007 cle = 0.6 elm = 2  xpart = 0.5 kt1l = 0 prt = 565.7 xti = 1.311  tpb = 0.0008294 tpbsw = 0 tpbswg = 0 tcj = 0.0006115  tcjsw = 0 tcjswg = 0 ef = 1.24  em = 21500000 noia = 5.623e+19 noib = 1526000  noic = 3.630e-11  binflag = 1 lref = 1e14 wref = 1e14 tref = 25  xl = 0 xw = 0 lmlt = 1 wmlt = 1  rd = 0 rdc = 0 rs = 0 rsc = 0  acm = 12 hdif = 0.15e-6 ldif = 0 calcacm = 1 )
	* Unrecognized parameter "binflag" -- ignored
	* Unrecognized parameter "lref" -- ignored
	* Unrecognized parameter "wref" -- ignored
	* Unrecognized parameter "lmlt" -- ignored
	* Unrecognized parameter "wmlt" -- ignored
	* Unrecognized parameter "rdc" -- ignored
	* Unrecognized parameter "rsc" -- ignored
Warning: LTspice supports BSIM3 version 3.3.0. Your model specified an unrecognized version: 3.24

Date: Thu Dec 01 13:11:57 2022
Total elapsed time: 7.434 seconds.

tnom = 27
temp = 27
method = trap
totiter = 1755
traniter = 0
tranpoints = 0
accept = 0
rejected = 0
matrix size = 4
fillins = 0
solver = Normal
Matrix Compiler1: 118 bytes object code size  0.3/0.2/[0.1]
Matrix Compiler2: 216 bytes object code size  0.2/0.2/[0.2]

