Circuit: * C:\Users\aditya gupta\Desktop\analog project\settling time\slew.asc

Ignoring BSIM parameter XL
Ignoring BSIM parameter XW
Ignoring BSIM parameter XL
Ignoring BSIM parameter XW
Warning: Pd = 0 is less than W.
Warning: Ps = 0 is less than W.
Warning: Pd = 0 is less than W.
Warning: Ps = 0 is less than W.
Warning: Pd = 0 is less than W.
Warning: Ps = 0 is less than W.
Warning: Pd = 0 is less than W.
Warning: Ps = 0 is less than W.
Warning: Pd = 0 is less than W.
Warning: Ps = 0 is less than W.
Direct Newton iteration for .op point succeeded.

Date: Mon Dec 06 10:56:48 2021
Total elapsed time: 0.048 seconds.

tnom = 27
temp = 27
method = modified trap
totiter = 714
traniter = 707
tranpoints = 340
accept = 329
rejected = 11
matrix size = 15
fillins = 2
solver = Normal
Matrix Compiler1: 980 bytes object code size  0.2/0.1/[0.1]
Matrix Compiler2: 1.23 KB object code size  0.1/0.1/[0.1]

