Circuit: * C:\Users\aditya gupta\Desktop\analog project\icmr\kth_Cc.asc

Ignoring BSIM parameter XL
Ignoring BSIM parameter XW
Ignoring BSIM parameter XL
Ignoring BSIM parameter XW
Warning: Pd = 0 is less than W.
Warning: Ps = 0 is less than W.
Warning: Pd = 0 is less than W.
Warning: Ps = 0 is less than W.
Warning: Pd = 0 is less than W.
Warning: Ps = 0 is less than W.
Warning: Pd = 0 is less than W.
Warning: Ps = 0 is less than W.
Warning: Pd = 0 is less than W.
Warning: Ps = 0 is less than W.
Increasing .dc sweep number of steps per decade from 0.1 to 1.

Date: Wed Dec 01 00:41:39 2021
Total elapsed time: 0.098 seconds.

tnom = 27
temp = 27
method = trap
totiter = 35
traniter = 0
tranpoints = 0
accept = 0
rejected = 0
matrix size = 13
fillins = 2
solver = Normal
Matrix Compiler1: 934 bytes object code size
Matrix Compiler2: 1.12 KB object code size
