Circuit: * C:\Users\Rohan\Desktop\aic\AIC_project\analog project\slew rate\slew.asc

Ignoring BSIM parameter XL
Ignoring BSIM parameter XW
Ignoring BSIM parameter XL
Ignoring BSIM parameter XW
Limiting fall time of source v2 to 9.999e-008
Warning: Pd = 0 is less than W.
Warning: Ps = 0 is less than W.
Warning: Pd = 0 is less than W.
Warning: Ps = 0 is less than W.
Warning: Pd = 0 is less than W.
Warning: Ps = 0 is less than W.
Warning: Pd = 0 is less than W.
Warning: Ps = 0 is less than W.
Warning: Pd = 0 is less than W.
Warning: Ps = 0 is less than W.
Direct Newton iteration for .op point succeeded.

Date: Fri Dec 02 13:05:02 2022
Total elapsed time: 0.579 seconds.

tnom = 27
temp = 27
method = modified trap
totiter = 24492
traniter = 24485
tranpoints = 9469
accept = 7230
rejected = 2239
matrix size = 15
fillins = 2
solver = Normal
Matrix Compiler1: 980 bytes object code size  0.3/0.2/[0.1]
Matrix Compiler2: 1.23 KB object code size  0.2/0.3/[0.2]

