Circuit: * C:\Users\aditya gupta\Desktop\analog project\2x ckt\2x ckt.asc

Ignoring BSIM parameter XL
Ignoring BSIM parameter XW
Ignoring BSIM parameter XL
Ignoring BSIM parameter XW
Warning: Pd = 0 is less than W.
Warning: Ps = 0 is less than W.
Warning: Pd = 0 is less than W.
Warning: Ps = 0 is less than W.
Warning: Pd = 0 is less than W.
Warning: Ps = 0 is less than W.
Warning: Pd = 0 is less than W.
Warning: Ps = 0 is less than W.
Warning: Pd = 0 is less than W.
Warning: Ps = 0 is less than W.
Direct Newton iteration for .op point succeeded.

Date: Fri Dec 03 20:06:07 2021
Total elapsed time: 0.057 seconds.

tnom = 27
temp = 27
method = modified trap
totiter = 585
traniter = 578
tranpoints = 290
accept = 289
rejected = 1
matrix size = 15
fillins = 2
solver = Normal
Matrix Compiler1: 980 bytes object code size  0.2/0.1/[0.1]
Matrix Compiler2: 1.23 KB object code size  0.1/0.1/[0.1]

