Circuit: * C:\Users\aditya gupta\Desktop\analog project\2x ckt\layout.asc

Ignoring BSIM parameter XL
Ignoring BSIM parameter XW
Ignoring BSIM parameter XL
Ignoring BSIM parameter XW
Error on line 20 : s1 n003 n012 n011 n010 sw
	 Unable to find definition of model "sw"
Error on line 21 : s2 n012 n018 n011 n010 sw
	 Unable to find definition of model "sw"
Error on line 22 : s3 out n006 n004 n005 sw
	 Unable to find definition of model "sw"
Error on line 23 : s4 out n003 n001 n002 sw
	 Unable to find definition of model "sw"
Error on line 24 : s5 n018 0 n020 n019 sw
	 Unable to find definition of model "sw"
WARNING: Node NC_01 is floating.
WARNING: Node N010 is floating.
WARNING: Node N005 is floating.
WARNING: Node N002 is floating.
WARNING: Node N019 is floating.

WARNING: Less than two connections to node NC_01.  This node is used by C2.
Warning: Pd = 0 is less than W.
Warning: Ps = 0 is less than W.
Warning: Pd = 0 is less than W.
Warning: Ps = 0 is less than W.
Warning: Pd = 0 is less than W.
Warning: Ps = 0 is less than W.
Warning: Pd = 0 is less than W.
Warning: Ps = 0 is less than W.
Warning: Pd = 0 is less than W.
Warning: Ps = 0 is less than W.
Direct Newton iteration for .op point succeeded.

Date: Wed Dec 08 16:29:30 2021
Total elapsed time: 2.002 seconds.

tnom = 27
temp = 27
method = modified trap
totiter = 1412
traniter = 1404
tranpoints = 547
accept = 460
rejected = 87
matrix size = 32
fillins = 2
solver = Normal
Matrix Compiler1: 1.48 KB object code size  0.3/0.1/[0.1]
Matrix Compiler2: 2.19 KB object code size  0.1/0.2/[0.1]

